tests/data/dgs/minimal_v6_latin1.dgs
************************************************************************
* Hand-authored v6 DGS fixture (ISO-8859-1, CRLF).
************************************************************************

$$General;FID(a:40);Descr(a:40);Val(a:40)
1;Version;6.0

$$ElmNet;FID(a:40);OP(a:1);loc_name(a:40);fold_id(p);frnom(r)
Grid;C;Grid;;50

$$ElmTerm;FID(a:40);OP(a:1);loc_name(a:40);fold_id(p);iUsage(i);outserv(i);uknom(r)
B1;C;Börse;Grid;0;0;110
B2;C;B2;Grid;0;0;110

$$ElmXnet;FID(a:40);OP(a:1);loc_name(a:40);fold_id(p);bustp(a:2);usetp(r);snss(r)
X1;C;X1;Grid;SL;1;1500

$$ElmLne;FID(a:40);OP(a:1);loc_name(a:40);fold_id(p);typ_id(p);dline(r);fline(r);outserv(i)
Ln1;C;Ln1;Grid;LT1;5;1;0

$$TypLne;FID(a:40);OP(a:1);loc_name(a:40);fold_id(p);cline(r);rline(r);sline(r);uline(r);xline(r)
LT1;C;LT1;;0.01;0.1;0.4;110;0.4

$$StaCubic;FID(a:40);OP(a:1);loc_name(a:40);fold_id(p);obj_bus(i);obj_id(p)
C1;C;C1;B1;0;X1
C2;C;C2;B1;0;Ln1
C3;C;C3;B2;1;Ln1

